Version 4.1
SHEET 1 980 680
WIRE 848 80 688 80
WIRE 960 80 848 80
WIRE 48 112 -64 112
WIRE 160 112 128 112
WIRE 208 112 160 112
WIRE 320 112 288 112
WIRE 368 112 320 112
WIRE 688 128 688 80
WIRE 848 128 848 80
WIRE 960 128 960 80
WIRE 160 160 160 112
WIRE 320 160 320 112
WIRE 160 240 160 224
WIRE 320 240 320 224
WIRE 320 240 160 240
WIRE 544 240 496 240
WIRE 688 240 688 208
WIRE 688 240 608 240
WIRE 736 240 688 240
WIRE 848 240 848 208
WIRE 848 240 800 240
WIRE 880 240 848 240
WIRE 320 272 320 240
WIRE -624 352 -624 304
WIRE -624 480 -624 432
FLAG -624 304 Vin
FLAG -64 112 Vin
FLAG -624 480 0
FLAG 320 272 0
FLAG 496 240 Vin
FLAG 960 128 0
FLAG 368 112 dc
FLAG 880 240 ac
SYMBOL res 144 96 R90
WINDOW 0 0 56 VBottom 2
WINDOW 3 32 56 VTop 2
SYMATTR InstName R1
SYMATTR Value 5.6k
SYMBOL res 304 96 R90
WINDOW 0 0 56 VBottom 2
WINDOW 3 32 56 VTop 2
SYMATTR InstName R2
SYMATTR Value 5.6k
SYMBOL cap 144 160 R0
SYMATTR InstName C1
SYMATTR Value 220n
SYMBOL cap 304 160 R0
SYMATTR InstName C2
SYMATTR Value 100n
SYMBOL voltage -624 336 R0
WINDOW 123 24 124 Left 2
WINDOW 39 0 0 Left 0
SYMATTR Value2 AC 0.5
SYMATTR InstName V1
SYMATTR Value SINE(1 0.5 100k)
SYMBOL res 672 112 R0
SYMATTR InstName R3
SYMATTR Value 10k
SYMBOL res 832 112 R0
SYMATTR InstName R4
SYMATTR Value 10k
SYMBOL cap 608 224 R90
WINDOW 0 0 32 VBottom 2
WINDOW 3 32 32 VTop 2
SYMATTR InstName C3
SYMATTR Value 220n
SYMBOL cap 800 224 R90
WINDOW 0 0 32 VBottom 2
WINDOW 3 32 32 VTop 2
SYMATTR InstName C4
SYMATTR Value 220n
TEXT -208 464 Left 2 ;.ac lin 1000 1 2k
TEXT -200 496 Left 2 !.tran 0 0.05m 1n 5n
