Version 4.1
SHEET 1 1168 936
WIRE 848 80 688 80
WIRE 960 80 848 80
WIRE 160 112 128 112
WIRE 208 112 160 112
WIRE 320 112 288 112
WIRE 368 112 320 112
WIRE 688 128 688 80
WIRE 848 128 848 80
WIRE 960 128 960 80
WIRE 160 160 160 112
WIRE 320 160 320 112
WIRE 160 240 160 224
WIRE 320 240 320 224
WIRE 320 240 160 240
WIRE 688 240 688 208
WIRE 688 240 608 240
WIRE 736 240 688 240
WIRE 848 240 848 208
WIRE 848 240 800 240
WIRE 880 240 848 240
WIRE 320 272 320 240
WIRE -752 352 -752 304
WIRE -624 352 -624 304
WIRE 976 432 912 432
WIRE 1088 432 1056 432
WIRE 1120 432 1088 432
WIRE 544 448 544 432
WIRE 1088 464 1088 432
WIRE -752 480 -752 432
WIRE -624 480 -624 432
WIRE 400 544 352 544
WIRE 544 544 544 528
WIRE 544 544 480 544
WIRE 640 544 544 544
WIRE 544 576 544 544
WIRE 1088 576 1088 528
WIRE 640 592 640 544
WIRE 544 672 544 656
WIRE 640 672 640 656
WIRE 640 672 544 672
WIRE 544 704 544 672
FLAG -624 304 Vin
FLAG -64 112 Vin
FLAG -624 480 0
FLAG 320 272 0
FLAG 496 240 Vin
FLAG 960 128 0
FLAG 368 112 dc
FLAG 880 240 ac
FLAG -752 480 0
FLAG 352 544 Vcc
FLAG -752 304 Vcc
FLAG 192 432 Vin
FLAG 1088 576 0
FLAG 1120 432 Vo
FLAG 544 704 0
FLAG 544 432 Vref
FLAG 912 432 Vin
SYMBOL res 144 96 R90
WINDOW 0 0 56 VBottom 2
WINDOW 3 32 56 VTop 2
SYMATTR InstName R1
SYMATTR Value 5.6k
SYMBOL res 304 96 R90
WINDOW 0 0 56 VBottom 2
WINDOW 3 32 56 VTop 2
SYMATTR InstName R2
SYMATTR Value 5.6k
SYMBOL cap 144 160 R0
SYMATTR InstName C1
SYMATTR Value 220n
SYMBOL cap 304 160 R0
SYMATTR InstName C2
SYMATTR Value 100n
SYMBOL voltage -624 336 R0
WINDOW 123 24 124 Left 2
WINDOW 39 0 0 Left 0
SYMATTR Value2 AC 100m
SYMATTR InstName V1
SYMATTR Value SINE(0 300 1k)
SYMBOL res 672 112 R0
SYMATTR InstName R3
SYMATTR Value 10k
SYMBOL res 832 112 R0
SYMATTR InstName R4
SYMATTR Value 10k
SYMBOL cap 608 224 R90
WINDOW 0 0 32 VBottom 2
WINDOW 3 32 32 VTop 2
SYMATTR InstName C3
SYMATTR Value 220n
SYMBOL cap 800 224 R90
WINDOW 0 0 32 VBottom 2
WINDOW 3 32 32 VTop 2
SYMATTR InstName C4
SYMATTR Value 220n
SYMBOL res 336 416 R90
WINDOW 0 0 56 VBottom 2
WINDOW 3 32 56 VTop 2
SYMATTR InstName R5
SYMATTR Value 10k
SYMBOL voltage -752 336 R0
SYMATTR InstName V2
SYMATTR Value 5V
SYMBOL res 1072 416 R90
WINDOW 0 0 56 VBottom 2
WINDOW 3 32 56 VTop 2
SYMATTR InstName R6
SYMATTR Value 100
SYMBOL cap 1072 464 R0
SYMATTR InstName C5
SYMATTR Value 1n
SYMBOL res 496 528 R90
WINDOW 0 0 56 VBottom 2
WINDOW 3 32 56 VTop 2
SYMATTR InstName R7
SYMATTR Value 5k
SYMBOL res 560 672 R180
WINDOW 0 36 76 Left 2
WINDOW 3 36 40 Left 2
SYMATTR InstName R8
SYMATTR Value 4k
SYMBOL cap 624 592 R0
SYMATTR InstName C6
SYMATTR Value 1µ
SYMBOL res 528 432 R0
SYMATTR InstName R9
SYMATTR Value 10k
SYMBOL OpAmps\\LTC6362 544 848 R0
SYMATTR InstName U1
TEXT -208 464 Left 2 !.ac dec 1000 100 10Meg
TEXT -200 496 Left 2 ;.tran 0 5m 1n 5u
