Version 4.1
SHEET 1 948 680
WIRE 48 112 -64 112
WIRE 160 112 128 112
WIRE 208 112 160 112
WIRE 320 112 288 112
WIRE 160 160 160 112
WIRE 320 160 320 112
WIRE 160 240 160 224
WIRE 320 240 320 224
WIRE 320 240 160 240
WIRE 320 272 320 240
WIRE -624 352 -624 304
WIRE -624 480 -624 432
FLAG -624 304 Vin
FLAG -64 112 Vin
FLAG -624 480 0
FLAG 320 272 0
FLAG 928 288 0
SYMBOL res 144 96 R90
WINDOW 0 0 56 VBottom 2
WINDOW 3 32 56 VTop 2
SYMATTR InstName R1
SYMATTR Value 5.6k
SYMBOL res 304 96 R90
WINDOW 0 0 56 VBottom 2
WINDOW 3 32 56 VTop 2
SYMATTR InstName R2
SYMATTR Value 5.6k
SYMBOL cap 144 160 R0
SYMATTR InstName C1
SYMATTR Value 220n
SYMBOL cap 304 160 R0
SYMATTR InstName C2
SYMATTR Value 100n
SYMBOL voltage -624 336 R0
WINDOW 123 24 124 Left 2
WINDOW 39 0 0 Left 0
SYMATTR InstName V1
SYMATTR Value SINE(0.5 0.5 1k)
SYMATTR Value2 AC 0.5
TEXT -208 464 Left 2 !.ac lin 1000 1 100
